Alim_Meia_Ponte_5_REDUZIDO/CODIGO_CONDUTOR_2021126072_5002086.dss
! Criação da seção de condutores
New "Linecode.100-71B_1" nphases=1 basefreq=60 r1=0.975 x1=0.47 units=km normamps=152
New "Linecode.100-71B_2" nphases=2 basefreq=60 r1=0.975 x1=0.47 units=km normamps=152
New "Linecode.100-71B_3" nphases=3 basefreq=60 r1=0.975 x1=0.47 units=km normamps=152
New "Linecode.100-71B_4" nphases=4 basefreq=60 r1=0.975 x1=0.47 units=km normamps=152
New "Linecode.100-71N_1" nphases=1 basefreq=60 r1=0.975 x1=0.47 units=km normamps=152
New "Linecode.100-71N_2" nphases=2 basefreq=60 r1=0.975 x1=0.47 units=km normamps=152
New "Linecode.100-71N_3" nphases=3 basefreq=60 r1=0.975 x1=0.47 units=km normamps=152
New "Linecode.100-71N_4" nphases=4 basefreq=60 r1=0.975 x1=0.47 units=km normamps=152
New "Linecode.101-71B_1" nphases=1 basefreq=60 r1=1.551 x1=0.49 units=km normamps=114
New "Linecode.101-71B_2" nphases=2 basefreq=60 r1=1.551 x1=0.49 units=km normamps=114
New "Linecode.101-71B_3" nphases=3 basefreq=60 r1=1.551 x1=0.49 units=km normamps=114
New "Linecode.101-71B_4" nphases=4 basefreq=60 r1=1.551 x1=0.49 units=km normamps=114
New "Linecode.102-71B_1" nphases=1 basefreq=60 r1=0.975 x1=0.47 units=km normamps=152
New "Linecode.102-71B_2" nphases=2 basefreq=60 r1=0.975 x1=0.47 units=km normamps=152
New "Linecode.102-71B_3" nphases=3 basefreq=60 r1=0.975 x1=0.47 units=km normamps=152
New "Linecode.102-71B_4" nphases=4 basefreq=60 r1=0.975 x1=0.47 units=km normamps=152
New "Linecode.10-31A_1" nphases=1 basefreq=60 r1=0.119 x1=0.518 units=km normamps=880
New "Linecode.10-31A_2" nphases=2 basefreq=60 r1=0.119 x1=0.518 units=km normamps=880
New "Linecode.10-31A_3" nphases=3 basefreq=60 r1=0.119 x1=0.518 units=km normamps=880
New "Linecode.10-31A_4" nphases=4 basefreq=60 r1=0.119 x1=0.518 units=km normamps=880
New "Linecode.103-71N_1" nphases=1 basefreq=60 r1=18.325 x1=0.494 units=km normamps=35
New "Linecode.103-71N_2" nphases=2 basefreq=60 r1=18.325 x1=0.494 units=km normamps=35
New "Linecode.103-71N_3" nphases=3 basefreq=60 r1=18.325 x1=0.494 units=km normamps=35
New "Linecode.103-71N_4" nphases=4 basefreq=60 r1=18.325 x1=0.494 units=km normamps=35
New "Linecode.104-71N_1" nphases=1 basefreq=60 r1=29.142 x1=0.513 units=km normamps=25
New "Linecode.104-71N_2" nphases=2 basefreq=60 r1=29.142 x1=0.513 units=km normamps=25
New "Linecode.104-71N_3" nphases=3 basefreq=60 r1=29.142 x1=0.513 units=km normamps=25
New "Linecode.104-71N_4" nphases=4 basefreq=60 r1=29.142 x1=0.513 units=km normamps=25
New "Linecode.105-71N_1" nphases=1 basefreq=60 r1=11.411 x1=0.52 units=km normamps=65
New "Linecode.105-71N_2" nphases=2 basefreq=60 r1=11.411 x1=0.52 units=km normamps=65
New "Linecode.105-71N_3" nphases=3 basefreq=60 r1=11.411 x1=0.52 units=km normamps=65
New "Linecode.105-71N_4" nphases=4 basefreq=60 r1=11.411 x1=0.52 units=km normamps=65
New "Linecode.10-61A_1" nphases=1 basefreq=60 r1=0.119 x1=0.518 units=km normamps=880
New "Linecode.10-61A_2" nphases=2 basefreq=60 r1=0.119 x1=0.518 units=km normamps=880
New "Linecode.10-61A_3" nphases=3 basefreq=60 r1=0.119 x1=0.518 units=km normamps=880
New "Linecode.10-61A_4" nphases=4 basefreq=60 r1=0.119 x1=0.518 units=km normamps=880
New "Linecode.106-71B_1" nphases=1 basefreq=60 r1=2.469 x1=0.6 units=km normamps=105
New "Linecode.106-71B_2" nphases=2 basefreq=60 r1=2.469 x1=0.6 units=km normamps=105
New "Linecode.106-71B_3" nphases=3 basefreq=60 r1=2.469 x1=0.6 units=km normamps=105
New "Linecode.106-71B_4" nphases=4 basefreq=60 r1=2.469 x1=0.6 units=km normamps=105
New "Linecode.106-71N_1" nphases=1 basefreq=60 r1=2.469 x1=0.6 units=km normamps=105
New "Linecode.106-71N_2" nphases=2 basefreq=60 r1=2.469 x1=0.6 units=km normamps=105
New "Linecode.106-71N_3" nphases=3 basefreq=60 r1=2.469 x1=0.6 units=km normamps=105
New "Linecode.106-71N_4" nphases=4 basefreq=60 r1=2.469 x1=0.6 units=km normamps=105
New "Linecode.10-71A_1" nphases=1 basefreq=60 r1=0.119 x1=0.518 units=km normamps=880
New "Linecode.10-71A_2" nphases=2 basefreq=60 r1=0.119 x1=0.518 units=km normamps=880
New "Linecode.10-71A_3" nphases=3 basefreq=60 r1=0.119 x1=0.518 units=km normamps=880
New "Linecode.10-71A_4" nphases=4 basefreq=60 r1=0.119 x1=0.518 units=km normamps=880
New "Linecode.10-71B_1" nphases=1 basefreq=60 r1=1.551 x1=0.49 units=km normamps=114
New "Linecode.10-71B_2" nphases=2 basefreq=60 r1=1.551 x1=0.49 units=km normamps=114
New "Linecode.10-71B_3" nphases=3 basefreq=60 r1=1.551 x1=0.49 units=km normamps=114
New "Linecode.10-71B_4" nphases=4 basefreq=60 r1=1.551 x1=0.49 units=km normamps=114
New "Linecode.10-71N_1" nphases=1 basefreq=60 r1=1.551 x1=0.49 units=km normamps=114
New "Linecode.10-71N_2" nphases=2 basefreq=60 r1=1.551 x1=0.49 units=km normamps=114
New "Linecode.10-71N_3" nphases=3 basefreq=60 r1=1.551 x1=0.49 units=km normamps=114
New "Linecode.10-71N_4" nphases=4 basefreq=60 r1=1.551 x1=0.49 units=km normamps=114
New "Linecode.107-42_1" nphases=1 basefreq=60 r1=3.514 x1=0.13 units=km normamps=47
New "Linecode.107-42_2" nphases=2 basefreq=60 r1=3.514 x1=0.13 units=km normamps=47
New "Linecode.107-42_3" nphases=3 basefreq=60 r1=3.514 x1=0.13 units=km normamps=47
New "Linecode.107-42_4" nphases=4 basefreq=60 r1=3.514 x1=0.13 units=km normamps=47
New "Linecode.107-44_1" nphases=1 basefreq=60 r1=3.514 x1=0.13 units=km normamps=47
New "Linecode.107-44_2" nphases=2 basefreq=60 r1=3.514 x1=0.13 units=km normamps=47
New "Linecode.107-44_3" nphases=3 basefreq=60 r1=3.514 x1=0.13 units=km normamps=47
New "Linecode.107-44_4" nphases=4 basefreq=60 r1=3.514 x1=0.13 units=km normamps=47
New "Linecode.107-51B_1" nphases=1 basefreq=60 r1=3.514 x1=0.13 units=km normamps=47
New "Linecode.107-51B_2" nphases=2 basefreq=60 r1=3.514 x1=0.13 units=km normamps=47
New "Linecode.107-51B_3" nphases=3 basefreq=60 r1=3.514 x1=0.13 units=km normamps=47
New "Linecode.107-51B_4" nphases=4 basefreq=60 r1=3.514 x1=0.13 units=km normamps=47
New "Linecode.108-43_1" nphases=1 basefreq=60 r1=2.179 x1=0.12 units=km normamps=61
New "Linecode.108-43_2" nphases=2 basefreq=60 r1=2.179 x1=0.12 units=km normamps=61
New "Linecode.108-43_3" nphases=3 basefreq=60 r1=2.179 x1=0.12 units=km normamps=61
New "Linecode.108-43_4" nphases=4 basefreq=60 r1=2.179 x1=0.12 units=km normamps=61
New "Linecode.108-44_1" nphases=1 basefreq=60 r1=2.179 x1=0.12 units=km normamps=61
New "Linecode.108-44_2" nphases=2 basefreq=60 r1=2.179 x1=0.12 units=km normamps=61
New "Linecode.108-44_3" nphases=3 basefreq=60 r1=2.179 x1=0.12 units=km normamps=61
New "Linecode.108-44_4" nphases=4 basefreq=60 r1=2.179 x1=0.12 units=km normamps=61
New "Linecode.108-51B_1" nphases=1 basefreq=60 r1=2.179 x1=0.12 units=km normamps=61
New "Linecode.108-51B_2" nphases=2 basefreq=60 r1=2.179 x1=0.12 units=km normamps=61
New "Linecode.108-51B_3" nphases=3 basefreq=60 r1=2.179 x1=0.12 units=km normamps=61
New "Linecode.108-51B_4" nphases=4 basefreq=60 r1=2.179 x1=0.12 units=km normamps=61
New "Linecode.109-44_1" nphases=1 basefreq=60 r1=1.369 x1=0.12 units=km normamps=78
New "Linecode.109-44_2" nphases=2 basefreq=60 r1=1.369 x1=0.12 units=km normamps=78
New "Linecode.109-44_3" nphases=3 basefreq=60 r1=1.369 x1=0.12 units=km normamps=78
New "Linecode.109-44_4" nphases=4 basefreq=60 r1=1.369 x1=0.12 units=km normamps=78
New "Linecode.109-51B_1" nphases=1 basefreq=60 r1=1.369 x1=0.12 units=km normamps=78
New "Linecode.109-51B_2" nphases=2 basefreq=60 r1=1.369 x1=0.12 units=km normamps=78
New "Linecode.109-51B_3" nphases=3 basefreq=60 r1=1.369 x1=0.12 units=km normamps=78
New "Linecode.109-51B_4" nphases=4 basefreq=60 r1=1.369 x1=0.12 units=km normamps=78
New "Linecode.110-44_1" nphases=1 basefreq=60 r1=0.991 x1=0.11 units=km normamps=94
New "Linecode.110-44_2" nphases=2 basefreq=60 r1=0.991 x1=0.11 units=km normamps=94
New "Linecode.110-44_3" nphases=3 basefreq=60 r1=0.991 x1=0.11 units=km normamps=94
New "Linecode.110-44_4" nphases=4 basefreq=60 r1=0.991 x1=0.11 units=km normamps=94
New "Linecode.110-51B_1" nphases=1 basefreq=60 r1=0.991 x1=0.11 units=km normamps=94
New "Linecode.110-51B_2" nphases=2 basefreq=60 r1=0.991 x1=0.11 units=km normamps=94
New "Linecode.110-51B_3" nphases=3 basefreq=60 r1=0.991 x1=0.11 units=km normamps=94
New "Linecode.110-51B_4" nphases=4 basefreq=60 r1=0.991 x1=0.11 units=km normamps=94
New "Linecode.111-51B_1" nphases=1 basefreq=60 r1=0.732 x1=0.11 units=km normamps=112
New "Linecode.111-51B_2" nphases=2 basefreq=60 r1=0.732 x1=0.11 units=km normamps=112
New "Linecode.111-51B_3" nphases=3 basefreq=60 r1=0.732 x1=0.11 units=km normamps=112
New "Linecode.111-51B_4" nphases=4 basefreq=60 r1=0.732 x1=0.11 units=km normamps=112
New "Linecode.112-51B_1" nphases=1 basefreq=60 r1=0.506 x1=0.11 units=km normamps=138
New "Linecode.112-51B_2" nphases=2 basefreq=60 r1=0.506 x1=0.11 units=km normamps=138
New "Linecode.112-51B_3" nphases=3 basefreq=60 r1=0.506 x1=0.11 units=km normamps=138
New "Linecode.112-51B_4" nphases=4 basefreq=60 r1=0.506 x1=0.11 units=km normamps=138
New "Linecode.113-51B_1" nphases=1 basefreq=60 r1=0.365 x1=0.1 units=km normamps=164
New "Linecode.113-51B_2" nphases=2 basefreq=60 r1=0.365 x1=0.1 units=km normamps=164
New "Linecode.113-51B_3" nphases=3 basefreq=60 r1=0.365 x1=0.1 units=km normamps=164
New "Linecode.113-51B_4" nphases=4 basefreq=60 r1=0.365 x1=0.1 units=km normamps=164
New "Linecode.114-51B_1" nphases=1 basefreq=60 r1=0.289 x1=0.1 units=km normamps=186
New "Linecode.114-51B_2" nphases=2 basefreq=60 r1=0.289 x1=0.1 units=km normamps=186
New "Linecode.114-51B_3" nphases=3 basefreq=60 r1=0.289 x1=0.1 units=km normamps=186
New "Linecode.114-51B_4" nphases=4 basefreq=60 r1=0.289 x1=0.1 units=km normamps=186
New "Linecode.115-51B_1" nphases=1 basefreq=60 r1=0.236 x1=0.1 units=km normamps=210
New "Linecode.115-51B_2" nphases=2 basefreq=60 r1=0.236 x1=0.1 units=km normamps=210
New "Linecode.115-51B_3" nphases=3 basefreq=60 r1=0.236 x1=0.1 units=km normamps=210
New "Linecode.115-51B_4" nphases=4 basefreq=60 r1=0.236 x1=0.1 units=km normamps=210
New "Linecode.11-61A_1" nphases=1 basefreq=60 r1=0.195 x1=0.402 units=km normamps=502.8
New "Linecode.11-61A_2" nphases=2 basefreq=60 r1=0.195 x1=0.402 units=km normamps=502.8
New "Linecode.11-61A_3" nphases=3 basefreq=60 r1=0.195 x1=0.402 units=km normamps=502.8
New "Linecode.11-61A_4" nphases=4 basefreq=60 r1=0.195 x1=0.402 units=km normamps=502.8
New "Linecode.116-51B_1" nphases=1 basefreq=60 r1=0.188 x1=0.1 units=km normamps=236
New "Linecode.116-51B_2" nphases=2 basefreq=60 r1=0.188 x1=0.1 units=km normamps=236
New "Linecode.116-51B_3" nphases=3 basefreq=60 r1=0.188 x1=0.1 units=km normamps=236
New "Linecode.116-51B_4" nphases=4 basefreq=60 r1=0.188 x1=0.1 units=km normamps=236
New "Linecode.11-71A_1" nphases=1 basefreq=60 r1=0.195 x1=0.402 units=km normamps=502.8
New "Linecode.11-71A_2" nphases=2 basefreq=60 r1=0.195 x1=0.402 units=km normamps=502.8
New "Linecode.11-71A_3" nphases=3 basefreq=60 r1=0.195 x1=0.402 units=km normamps=502.8
New "Linecode.11-71A_4" nphases=4 basefreq=60 r1=0.195 x1=0.402 units=km normamps=502.8
New "Linecode.11-71B_1" nphases=1 basefreq=60 r1=1.551 x1=0.49 units=km normamps=114
New "Linecode.11-71B_2" nphases=2 basefreq=60 r1=1.551 x1=0.49 units=km normamps=114
New "Linecode.11-71B_3" nphases=3 basefreq=60 r1=1.551 x1=0.49 units=km normamps=114
New "Linecode.11-71B_4" nphases=4 basefreq=60 r1=1.551 x1=0.49 units=km normamps=114
New "Linecode.11-71N_1" nphases=1 basefreq=60 r1=1.551 x1=0.49 units=km normamps=114
New "Linecode.11-71N_2" nphases=2 basefreq=60 r1=1.551 x1=0.49 units=km normamps=114
New "Linecode.11-71N_3" nphases=3 basefreq=60 r1=1.551 x1=0.49 units=km normamps=114
New "Linecode.11-71N_4" nphases=4 basefreq=60 r1=1.551 x1=0.49 units=km normamps=114
New "Linecode.117-51B_1" nphases=1 basefreq=60 r1=0.143 x1=0.1 units=km normamps=272
New "Linecode.117-51B_2" nphases=2 basefreq=60 r1=0.143 x1=0.1 units=km normamps=272
New "Linecode.117-51B_3" nphases=3 basefreq=60 r1=0.143 x1=0.1 units=km normamps=272
New "Linecode.117-51B_4" nphases=4 basefreq=60 r1=0.143 x1=0.1 units=km normamps=272
New "Linecode.118-51M_1" nphases=1 basefreq=60 r1=0.991 x1=0.17 units=km normamps=83
New "Linecode.118-51M_2" nphases=2 basefreq=60 r1=0.991 x1=0.17 units=km normamps=83
New "Linecode.118-51M_3" nphases=3 basefreq=60 r1=0.991 x1=0.17 units=km normamps=83
New "Linecode.118-51M_4" nphases=4 basefreq=60 r1=0.991 x1=0.17 units=km normamps=83
New "Linecode.119-51M_1" nphases=1 basefreq=60 r1=0.732 x1=0.16 units=km normamps=98
New "Linecode.119-51M_2" nphases=2 basefreq=60 r1=0.732 x1=0.16 units=km normamps=98
New "Linecode.119-51M_3" nphases=3 basefreq=60 r1=0.732 x1=0.16 units=km normamps=98
New "Linecode.119-51M_4" nphases=4 basefreq=60 r1=0.732 x1=0.16 units=km normamps=98
New "Linecode.120-31M_1" nphases=1 basefreq=60 r1=0.506 x1=0.15 units=km normamps=120
New "Linecode.120-31M_2" nphases=2 basefreq=60 r1=0.506 x1=0.15 units=km normamps=120
New "Linecode.120-31M_3" nphases=3 basefreq=60 r1=0.506 x1=0.15 units=km normamps=120
New "Linecode.120-31M_4" nphases=4 basefreq=60 r1=0.506 x1=0.15 units=km normamps=120
New "Linecode.121-31M_1" nphases=1 basefreq=60 r1=0.365 x1=0.15 units=km normamps=143
New "Linecode.121-31M_2" nphases=2 basefreq=60 r1=0.365 x1=0.15 units=km normamps=143
New "Linecode.121-31M_3" nphases=3 basefreq=60 r1=0.365 x1=0.15 units=km normamps=143
New "Linecode.121-31M_4" nphases=4 basefreq=60 r1=0.365 x1=0.15 units=km normamps=143
New "Linecode.12-31A_1" nphases=1 basefreq=60 r1=0.165 x1=0.471 units=km normamps=502
New "Linecode.12-31A_2" nphases=2 basefreq=60 r1=0.165 x1=0.471 units=km normamps=502
New "Linecode.12-31A_3" nphases=3 basefreq=60 r1=0.165 x1=0.471 units=km normamps=502
New "Linecode.12-31A_4" nphases=4 basefreq=60 r1=0.165 x1=0.471 units=km normamps=502
New "Linecode.123-31M_1" nphases=1 basefreq=60 r1=0.236 x1=0.14 units=km normamps=182
New "Linecode.123-31M_2" nphases=2 basefreq=60 r1=0.236 x1=0.14 units=km normamps=182
New "Linecode.123-31M_3" nphases=3 basefreq=60 r1=0.236 x1=0.14 units=km normamps=182
New "Linecode.123-31M_4" nphases=4 basefreq=60 r1=0.236 x1=0.14 units=km normamps=182
New "Linecode.12-61A_1" nphases=1 basefreq=60 r1=0.165 x1=0.471 units=km normamps=502
New "Linecode.12-61A_2" nphases=2 basefreq=60 r1=0.165 x1=0.471 units=km normamps=502
New "Linecode.12-61A_3" nphases=3 basefreq=60 r1=0.165 x1=0.471 units=km normamps=502
New "Linecode.12-61A_4" nphases=4 basefreq=60 r1=0.165 x1=0.471 units=km normamps=502
New "Linecode.126-51M_1" nphases=1 basefreq=60 r1=0.115 x1=0.12 units=km normamps=305
New "Linecode.126-51M_2" nphases=2 basefreq=60 r1=0.115 x1=0.12 units=km normamps=305
New "Linecode.126-51M_3" nphases=3 basefreq=60 r1=0.115 x1=0.12 units=km normamps=305
New "Linecode.126-51M_4" nphases=4 basefreq=60 r1=0.115 x1=0.12 units=km normamps=305
New "Linecode.12-71A_1" nphases=1 basefreq=60 r1=0.165 x1=0.471 units=km normamps=502
New "Linecode.12-71A_2" nphases=2 basefreq=60 r1=0.165 x1=0.471 units=km normamps=502
New "Linecode.12-71A_3" nphases=3 basefreq=60 r1=0.165 x1=0.471 units=km normamps=502
New "Linecode.12-71A_4" nphases=4 basefreq=60 r1=0.165 x1=0.471 units=km normamps=502
New "Linecode.12-71B_1" nphases=1 basefreq=60 r1=0.613 x1=0.45 units=km normamps=203
New "Linecode.12-71B_2" nphases=2 basefreq=60 r1=0.613 x1=0.45 units=km normamps=203
New "Linecode.12-71B_3" nphases=3 basefreq=60 r1=0.613 x1=0.45 units=km normamps=203
New "Linecode.12-71B_4" nphases=4 basefreq=60 r1=0.613 x1=0.45 units=km normamps=203
New "Linecode.127-51B_1" nphases=1 basefreq=60 r1=2.082 x1=0.12 units=km normamps=61
New "Linecode.127-51B_2" nphases=2 basefreq=60 r1=2.082 x1=0.12 units=km normamps=61
New "Linecode.127-51B_3" nphases=3 basefreq=60 r1=2.082 x1=0.12 units=km normamps=61
New "Linecode.127-51B_4" nphases=4 basefreq=60 r1=2.082 x1=0.12 units=km normamps=61
New "Linecode.127-71_1" nphases=1 basefreq=60 r1=2.082 x1=0.12 units=km normamps=61
New "Linecode.127-71_2" nphases=2 basefreq=60 r1=2.082 x1=0.12 units=km normamps=61
New "Linecode.127-71_3" nphases=3 basefreq=60 r1=2.082 x1=0.12 units=km normamps=61
New "Linecode.127-71_4" nphases=4 basefreq=60 r1=2.082 x1=0.12 units=km normamps=61
New "Linecode.128-51B_1" nphases=1 basefreq=60 r1=1.308 x1=0.12 units=km normamps=79
New "Linecode.128-51B_2" nphases=2 basefreq=60 r1=1.308 x1=0.12 units=km normamps=79
New "Linecode.128-51B_3" nphases=3 basefreq=60 r1=1.308 x1=0.12 units=km normamps=79
New "Linecode.128-51B_4" nphases=4 basefreq=60 r1=1.308 x1=0.12 units=km normamps=79
New "Linecode.128-71_1" nphases=1 basefreq=60 r1=1.308 x1=0.12 units=km normamps=79
New "Linecode.128-71_2" nphases=2 basefreq=60 r1=1.308 x1=0.12 units=km normamps=79
New "Linecode.128-71_3" nphases=3 basefreq=60 r1=1.308 x1=0.12 units=km normamps=79
New "Linecode.128-71_4" nphases=4 basefreq=60 r1=1.308 x1=0.12 units=km normamps=79
New "Linecode.129-51B_1" nphases=1 basefreq=60 r1=0.827 x1=0.12 units=km normamps=101
New "Linecode.129-51B_2" nphases=2 basefreq=60 r1=0.827 x1=0.12 units=km normamps=101
New "Linecode.129-51B_3" nphases=3 basefreq=60 r1=0.827 x1=0.12 units=km normamps=101
New "Linecode.129-51B_4" nphases=4 basefreq=60 r1=0.827 x1=0.12 units=km normamps=101
...
