Alim_Meia_Ponte_5_REDUZIDO/CARGAS_DU01_2021126072_5002086.dss
! Criação da seção de cargas

New "Load.mt_10009727955_m1" bus1="88185385002086.1.2.3.4" phases=3 conn=Wye model=2 kv=13.8 kw=5.46925728729341 kvar=2.616981255885 daily="CURVA" status=variable vmaxpu=1.5 vminpu=0.92
New "Load.mt_10009727955_m2" bus1="88185385002086.1.2.3.4" phases=3 conn=Wye model=3 kv=13.8 kw=5.46925728729341 kvar=2.616981255885 daily="CURVA" status=variable vmaxpu=1.5 vminpu=0.92

New "Load.mt_10014416466_m1" bus1="89458365002086.1.2.3.4" phases=3 conn=Wye model=2 kv=13.8 kw=2.65068009244008 kvar=1.2683221419075 daily="CURVA" status=variable vmaxpu=1.5 vminpu=0.92
New "Load.mt_10014416466_m2" bus1="89458365002086.1.2.3.4" phases=3 conn=Wye model=3 kv=13.8 kw=2.65068009244008 kvar=1.2683221419075 daily="CURVA" status=variable vmaxpu=1.5 vminpu=0.92

New "Load.mt_10015559007_m1" bus1="89813615002086.1.2.3.4" phases=3 conn=Wye model=2 kv=13.8 kw=2.32027223167495 kvar=1.11022550592947 daily="CURVA" status=variable vmaxpu=1.5 vminpu=0.92
New "Load.mt_10015559007_m2" bus1="89813615002086.1.2.3.4" phases=3 conn=Wye model=3 kv=13.8 kw=2.32027223167495 kvar=1.11022550592947 daily="CURVA" status=variable vmaxpu=1.5 vminpu=0.92

New "Load.mt_10020770241_m1" bus1="90964325002086.1.2.3.4" phases=3 conn=Wye model=2 kv=13.8 kw=0.984395574708071 kvar=0.471022779157282 daily="CURVA" status=variable vmaxpu=1.5 vminpu=0.92
New "Load.mt_10020770241_m2" bus1="90964325002086.1.2.3.4" phases=3 conn=Wye model=3 kv=13.8 kw=0.984395574708071 kvar=0.471022779157282 daily="CURVA" status=variable vmaxpu=1.5 vminpu=0.92

New "Load.mt_10022767280_m1" bus1="89813615002086.1.2.3.4" phases=3 conn=Wye model=2 kv=13.8 kw=1.01515360529308 kvar=0.485740168609034 daily="CURVA" status=variable vmaxpu=1.5 vminpu=0.92
New "Load.mt_10022767280_m2" bus1="89813615002086.1.2.3.4" phases=3 conn=Wye model=3 kv=13.8 kw=1.01515360529308 kvar=0.485740168609034 daily="CURVA" status=variable vmaxpu=1.5 vminpu=0.92

New "Load.mt_10009727955_nt_m1" bus1="88185385002086.1.2.3.4" phases=3 conn=Wye model=2 kv=13.8 kw=1.79372452298693 kvar=0.858278045500595 daily="CURVA" status=variable vmaxpu=1.5 vminpu=0.92
New "Load.mt_10009727955_nt_m2" bus1="88185385002086.1.2.3.4" phases=3 conn=Wye model=3 kv=13.8 kw=1.79372452298693 kvar=0.858278045500595 daily="CURVA" status=variable vmaxpu=1.5 vminpu=0.92

New "Load.mt_10014416466_nt_m1" bus1="89458365002086.1.2.3.4" phases=3 conn=Wye model=2 kv=13.8 kw=0.869330069097011 kvar=0.415965162452603 daily="CURVA" status=variable vmaxpu=1.5 vminpu=0.92
New "Load.mt_10014416466_nt_m2" bus1="89458365002086.1.2.3.4" phases=3 conn=Wye model=3 kv=13.8 kw=0.869330069097011 kvar=0.415965162452603 daily="CURVA" status=variable vmaxpu=1.5 vminpu=0.92

New "Load.mt_10015559007_nt_m1" bus1="89813615002086.1.2.3.4" phases=3 conn=Wye model=2 kv=13.8 kw=0.760967900998345 kvar=0.364115021224084 daily="CURVA" status=variable vmaxpu=1.5 vminpu=0.92
New "Load.mt_10015559007_nt_m2" bus1="89813615002086.1.2.3.4" phases=3 conn=Wye model=3 kv=13.8 kw=0.760967900998345 kvar=0.364115021224084 daily="CURVA" status=variable vmaxpu=1.5 vminpu=0.92

New "Load.mt_10020770241_nt_m1" bus1="90964325002086.1.2.3.4" phases=3 conn=Wye model=2 kv=13.8 kw=0.32284708491831 kvar=0.154478885407572 daily="CURVA" status=variable vmaxpu=1.5 vminpu=0.92
New "Load.mt_10020770241_nt_m2" bus1="90964325002086.1.2.3.4" phases=3 conn=Wye model=3 kv=13.8 kw=0.32284708491831 kvar=0.154478885407572 daily="CURVA" status=variable vmaxpu=1.5 vminpu=0.92

New "Load.mt_10022767280_nt_m1" bus1="89813615002086.1.2.3.4" phases=3 conn=Wye model=2 kv=13.8 kw=0.332934750767698 kvar=0.159305725882752 daily="CURVA" status=variable vmaxpu=1.5 vminpu=0.92
New "Load.mt_10022767280_nt_m2" bus1="89813615002086.1.2.3.4" phases=3 conn=Wye model=3 kv=13.8 kw=0.332934750767698 kvar=0.159305725882752 daily="CURVA" status=variable vmaxpu=1.5 vminpu=0.92

New "Load.m2_trf_5286699a" bus1="82034475286699.1.2.3.4" phases=3 conn=Wye model=3 kv=0.380 kw=0.268829373986176 kvar=0.129478696298239 daily="CURVA" status=variable vmaxpu=1.5 vminpu=0.92
New "Load.m2_trf_5286707a" bus1="82034835286707.1.2.3.4" phases=3 conn=Wye model=3 kv=0.380 kw=13.2972889285625 kvar=6.41189718869 daily="CURVA" status=variable vmaxpu=1.5 vminpu=0.92
New "Load.m2_trf_5286708a" bus1="82034845286708.1.2.3.4" phases=3 conn=Wye model=3 kv=0.380 kw=1.16836070063365 kvar=0.569334536224985 daily="CURVA" status=variable vmaxpu=1.5 vminpu=0.92
New "Load.m2_trf_5286718a" bus1="82053655286718.1.2.3.4" phases=3 conn=Wye model=3 kv=0.380 kw=2.29129887043747 kvar=1.06907255061507 daily="CURVA" status=variable vmaxpu=1.5 vminpu=0.92
New "Load.m2_trf_5286787a" bus1="82023305286787.1.2.3.4" phases=3 conn=Wye model=3 kv=0.380 kw=29.7171219795403 kvar=13.8571470140063 daily="CURVA" status=variable vmaxpu=1.5 vminpu=0.92
New "Load.m2_trf_5286788a" bus1="82023395286788.1.2.3.4" phases=3 conn=Wye model=3 kv=0.380 kw=48.9352030258116 kvar=22.3753838512962 daily="CURVA" status=variable vmaxpu=1.5 vminpu=0.92
New "Load.m2_trf_5286789a" bus1="82022295286789.1.2.3.4" phases=3 conn=Wye model=3 kv=0.380 kw=19.4987837323933 kvar=9.06517893863251 daily="CURVA" status=variable vmaxpu=1.5 vminpu=0.92
New "Load.m2_trf_5286790a" bus1="82022455286790.1.2.3.4" phases=3 conn=Wye model=3 kv=0.380 kw=30.9748502224353 kvar=14.5231031895442 daily="CURVA" status=variable vmaxpu=1.5 vminpu=0.92
New "Load.m2_trf_5286791a" bus1="82022605286791.1.2.3.4" phases=3 conn=Wye model=3 kv=0.380 kw=35.7882874461477 kvar=16.648535216187 daily="CURVA" status=variable vmaxpu=1.5 vminpu=0.92
New "Load.m2_trf_5286792a" bus1="82019965286792.1.2.3.4" phases=3 conn=Wye model=3 kv=0.380 kw=29.5887672760484 kvar=13.7181174763906 daily="CURVA" status=variable vmaxpu=1.5 vminpu=0.92
New "Load.m2_trf_5286793a" bus1="82020055286793.1.2.3.4" phases=3 conn=Wye model=3 kv=0.380 kw=17.9938955943474 kvar=8.35912062697325 daily="CURVA" status=variable vmaxpu=1.5 vminpu=0.92
New "Load.m2_trf_5286794a" bus1="82020175286794.1.2.3.4" phases=3 conn=Wye model=3 kv=0.380 kw=43.8228339652327 kvar=20.3731833181143 daily="CURVA" status=variable vmaxpu=1.5 vminpu=0.92
New "Load.m2_trf_5286795a" bus1="82020405286795.1.2.3.4" phases=3 conn=Wye model=3 kv=0.380 kw=31.3968056498704 kvar=14.6697402094091 daily="CURVA" status=variable vmaxpu=1.5 vminpu=0.92
New "Load.m2_trf_5286796a" bus1="82020555286796.1.2.3.4" phases=3 conn=Wye model=3 kv=0.380 kw=24.1876272379544 kvar=11.2482317348406 daily="CURVA" status=variable vmaxpu=1.5 vminpu=0.92
New "Load.m2_trf_5286797a" bus1="82020675286797.1.2.3.4" phases=3 conn=Wye model=3 kv=0.380 kw=15.5028314580108 kvar=7.23860128244348 daily="CURVA" status=variable vmaxpu=1.5 vminpu=0.92
New "Load.m2_trf_5286798a" bus1="82021885286798.1.2.3.4" phases=3 conn=Wye model=3 kv=0.380 kw=18.1585706907148 kvar=8.44531533080758 daily="CURVA" status=variable vmaxpu=1.5 vminpu=0.92
New "Load.m2_trf_5286799a" bus1="82021995286799.1.2.3.4" phases=3 conn=Wye model=3 kv=0.380 kw=37.0680111671048 kvar=17.160236606518 daily="CURVA" status=variable vmaxpu=1.5 vminpu=0.92
New "Load.m2_trf_5286800a" bus1="82024325286800.1.2.3.4" phases=3 conn=Wye model=3 kv=0.380 kw=31.8118283117642 kvar=14.7889364399254 daily="CURVA" status=variable vmaxpu=1.5 vminpu=0.92
New "Load.m2_trf_5286801a" bus1="82022225286801.1.2.3.4" phases=3 conn=Wye model=3 kv=0.380 kw=22.5086119257695 kvar=10.4704796949189 daily="CURVA" status=variable vmaxpu=1.5 vminpu=0.92
New "Load.m2_trf_5286802a" bus1="82021615286802.1.2.3.4" phases=3 conn=Wye model=3 kv=0.380 kw=19.2443785321294 kvar=8.91402675864866 daily="CURVA" status=variable vmaxpu=1.5 vminpu=0.92
New "Load.m2_trf_5286803a" bus1="82036745286803.1.2.3.4" phases=3 conn=Wye model=3 kv=0.380 kw=36.9265946148705 kvar=16.8838601314077 daily="CURVA" status=variable vmaxpu=1.5 vminpu=0.92
New "Load.m2_trf_5286804a" bus1="82033055286804.1.2.3.4" phases=3 conn=Wye model=3 kv=0.380 kw=33.9698564773648 kvar=15.5198366848987 daily="CURVA" status=variable vmaxpu=1.5 vminpu=0.92
New "Load.m2_trf_5286805a" bus1="82033395286805.1.2.3.4" phases=3 conn=Wye model=3 kv=0.380 kw=22.8258169307541 kvar=10.5099702995059 daily="CURVA" status=variable vmaxpu=1.5 vminpu=0.92
New "Load.m2_trf_5286806a" bus1="82024965286806.1.2.3.4" phases=3 conn=Wye model=3 kv=0.380 kw=29.4074361336519 kvar=13.8148099208223 daily="CURVA" status=variable vmaxpu=1.5 vminpu=0.92
New "Load.m2_trf_5286807a" bus1="90855665286807.1.2.3.4" phases=3 conn=Wye model=3 kv=0.380 kw=41.3265954933638 kvar=19.1561461638064 daily="CURVA" status=variable vmaxpu=1.5 vminpu=0.92
New "Load.m2_trf_5286808a" bus1="82027905286808.1.2.3.4" phases=3 conn=Wye model=3 kv=0.380 kw=41.7898996988877 kvar=19.0591725679962 daily="CURVA" status=variable vmaxpu=1.5 vminpu=0.92
New "Load.m2_trf_5286809a" bus1="82028045286809.1.2.3.4" phases=3 conn=Wye model=3 kv=0.380 kw=29.1950957197373 kvar=13.4801863422098 daily="CURVA" status=variable vmaxpu=1.5 vminpu=0.92
New "Load.m2_trf_5286810a" bus1="82028035286810.1.2.3.4" phases=3 conn=Wye model=3 kv=0.380 kw=47.6753258888312 kvar=22.3618057363697 daily="CURVA" status=variable vmaxpu=1.5 vminpu=0.92
New "Load.m2_trf_5286811a" bus1="82026685286811.1.2.3.4" phases=3 conn=Wye model=3 kv=0.380 kw=35.9987558985965 kvar=16.7240229098655 daily="CURVA" status=variable vmaxpu=1.5 vminpu=0.92
New "Load.m2_trf_5286812a" bus1="82026915286812.1.2.3.4" phases=3 conn=Wye model=3 kv=0.380 kw=62.2550336474719 kvar=29.0547297113384 daily="CURVA" status=variable vmaxpu=1.5 vminpu=0.92
New "Load.m2_trf_5286813a" bus1="82028365286813.1.2.3.4" phases=3 conn=Wye model=3 kv=0.380 kw=16.7356398137878 kvar=7.74781321759969 daily="CURVA" status=variable vmaxpu=1.5 vminpu=0.92
New "Load.m2_trf_5286814a" bus1="82027655286814.1.2.3.4" phases=3 conn=Wye model=3 kv=0.380 kw=37.660330910372 kvar=17.4543347093106 daily="CURVA" status=variable vmaxpu=1.5 vminpu=0.92
New "Load.m2_trf_5286815a" bus1="82027735286815.1.2.3.4" phases=3 conn=Wye model=3 kv=0.380 kw=42.8537823737743 kvar=19.932590340743 daily="CURVA" status=variable vmaxpu=1.5 vminpu=0.92
New "Load.m2_trf_5286816a" bus1="82029355286816.1.2.3.4" phases=3 conn=Wye model=3 kv=0.380 kw=35.1204740362075 kvar=16.4381312705117 daily="CURVA" status=variable vmaxpu=1.5 vminpu=0.92
New "Load.m2_trf_5286817a" bus1="82029275286817.1.2.3.4" phases=3 conn=Wye model=3 kv=0.380 kw=22.1749858759426 kvar=10.233088381851 daily="CURVA" status=variable vmaxpu=1.5 vminpu=0.92
New "Load.m2_trf_5286818a" bus1="82028855286818.1.2.3.4" phases=3 conn=Wye model=3 kv=0.380 kw=14.1416502855115 kvar=6.50982118025307 daily="CURVA" status=variable vmaxpu=1.5 vminpu=0.92
New "Load.m2_trf_5286819a" bus1="82027135286819.1.2.3.4" phases=3 conn=Wye model=3 kv=0.380 kw=37.7218402184493 kvar=17.5073414719628 daily="CURVA" status=variable vmaxpu=1.5 vminpu=0.92
New "Load.m2_trf_5286820a" bus1="82026625286820.1.2.3.4" phases=3 conn=Wye model=3 kv=0.380 kw=25.3250044932874 kvar=11.6695843017872 daily="CURVA" status=variable vmaxpu=1.5 vminpu=0.92
New "Load.m2_trf_5286821a" bus1="82025745286821.1.2.3.4" phases=3 conn=Wye model=3 kv=0.380 kw=50.5075244555559 kvar=23.6178349251503 daily="CURVA" status=variable vmaxpu=1.5 vminpu=0.92
New "Load.m2_trf_5286828a" bus1="82042655286828.1.2.3.4" phases=3 conn=Wye model=3 kv=0.380 kw=27.4438807906939 kvar=13.1237394512003 daily="CURVA" status=variable vmaxpu=1.5 vminpu=0.92
New "Load.m2_trf_5286829a" bus1="81490995286829.1.2.3.4" phases=3 conn=Wye model=3 kv=0.380 kw=15.555257711882 kvar=7.27321274838376 daily="CURVA" status=variable vmaxpu=1.5 vminpu=0.92
New "Load.m2_trf_5286830a" bus1="81460505286830.1.2.3.4" phases=3 conn=Wye model=3 kv=0.380 kw=32.8725701026926 kvar=15.6109878143605 daily="CURVA" status=variable vmaxpu=1.5 vminpu=0.92
New "Load.m2_trf_5286831a" bus1="82043025286831.1.2.3.4" phases=3 conn=Wye model=3 kv=0.380 kw=27.3081814129911 kvar=12.750994461654 daily="CURVA" status=variable vmaxpu=1.5 vminpu=0.92
New "Load.m2_trf_5286832a" bus1="82042575286832.1.2.3.4" phases=3 conn=Wye model=3 kv=0.380 kw=22.5669626988997 kvar=10.4444875162967 daily="CURVA" status=variable vmaxpu=1.5 vminpu=0.92
New "Load.m2_trf_5286833a" bus1="82041995286833.1.2.3.4" phases=3 conn=Wye model=3 kv=0.380 kw=29.8859100472476 kvar=13.7929545784931 daily="CURVA" status=variable vmaxpu=1.5 vminpu=0.92
New "Load.m2_trf_5286834a" bus1="82038095286834.1.2.3.4" phases=3 conn=Wye model=3 kv=0.380 kw=37.2356947803616 kvar=17.4042840750115 daily="CURVA" status=variable vmaxpu=1.5 vminpu=0.92
New "Load.m2_trf_5286835a" bus1="82038115286835.1.2.3.4" phases=3 conn=Wye model=3 kv=0.380 kw=31.1131256356819 kvar=14.4420206500853 daily="CURVA" status=variable vmaxpu=1.5 vminpu=0.92
New "Load.m2_trf_5286836a" bus1="82041105286836.1.2.3.4" phases=3 conn=Wye model=3 kv=0.380 kw=19.8793499731852 kvar=9.18861163005964 daily="CURVA" status=variable vmaxpu=1.5 vminpu=0.92
New "Load.m2_trf_5286837a" bus1="82041215286837.1.2.3.4" phases=3 conn=Wye model=3 kv=0.380 kw=10.9527022257711 kvar=5.11470951090017 daily="CURVA" status=variable vmaxpu=1.5 vminpu=0.92
New "Load.m2_trf_5286838a" bus1="82041905286838.1.2.3.4" phases=3 conn=Wye model=3 kv=0.380 kw=20.9563672830149 kvar=9.71084203385415 daily="CURVA" status=variable vmaxpu=1.5 vminpu=0.92
New "Load.m2_trf_5286839a" bus1="82038825286839.1.2.3.4" phases=3 conn=Wye model=3 kv=0.380 kw=30.3075499326564 kvar=14.1215043837281 daily="CURVA" status=variable vmaxpu=1.5 vminpu=0.92
New "Load.m2_trf_5286840a" bus1="82037555286840.1.2.3.4" phases=3 conn=Wye model=3 kv=0.380 kw=43.2039268891612 kvar=20.2389193206954 daily="CURVA" status=variable vmaxpu=1.5 vminpu=0.92
New "Load.m2_trf_5286841a" bus1="82039455286841.1.2.3.4" phases=3 conn=Wye model=3 kv=0.380 kw=26.0398476374456 kvar=12.0593831641464 daily="CURVA" status=variable vmaxpu=1.5 vminpu=0.92
New "Load.m2_trf_5286842a" bus1="82039695286842.1.2.3.4" phases=3 conn=Wye model=3 kv=0.380 kw=28.0660381429383 kvar=12.9758045486541 daily="CURVA" status=variable vmaxpu=1.5 vminpu=0.92
New "Load.m2_trf_5286843a" bus1="82042105286843.1.2.3.4" phases=3 conn=Wye model=3 kv=0.380 kw=21.40372723545 kvar=9.94559105542109 daily="CURVA" status=variable vmaxpu=1.5 vminpu=0.92
New "Load.m2_trf_5286844a" bus1="82042165286844.1.2.3.4" phases=3 conn=Wye model=3 kv=0.380 kw=19.7631542706939 kvar=9.17758450759305 daily="CURVA" status=variable vmaxpu=1.5 vminpu=0.92
New "Load.m2_trf_5286845a" bus1="82042275286845.1.2.3.4" phases=3 conn=Wye model=3 kv=0.380 kw=27.2034806031397 kvar=12.5695074512755 daily="CURVA" status=variable vmaxpu=1.5 vminpu=0.92
New "Load.m2_trf_5286846a" bus1="82041545286846.1.2.3.4" phases=3 conn=Wye model=3 kv=0.380 kw=21.1992116581756 kvar=9.78509241855319 daily="CURVA" status=variable vmaxpu=1.5 vminpu=0.92
New "Load.m2_trf_5286857a" bus1="82062475286857.1.2.3.4" phases=3 conn=Wye model=3 kv=0.380 kw=37.2755114573032 kvar=17.2336383317155 daily="CURVA" status=variable vmaxpu=1.5 vminpu=0.92
New "Load.m2_trf_5286858a" bus1="82064145286858.1.2.3.4" phases=3 conn=Wye model=3 kv=0.380 kw=26.387854493759 kvar=12.2282333224281 daily="CURVA" status=variable vmaxpu=1.5 vminpu=0.92
New "Load.m2_trf_5286860a" bus1="82065235286860.1.2.3.4" phases=3 conn=Wye model=3 kv=0.380 kw=17.7205969028161 kvar=8.22597710309109 daily="CURVA" status=variable vmaxpu=1.5 vminpu=0.92
New "Load.m2_trf_5286861a" bus1="82064065286861.1.2.3.4" phases=3 conn=Wye model=3 kv=0.380 kw=20.8702602301357 kvar=9.65905587205641 daily="CURVA" status=variable vmaxpu=1.5 vminpu=0.92
New "Load.m2_trf_5286862a" bus1="82065285286862.1.2.3.4" phases=3 conn=Wye model=3 kv=0.380 kw=29.8766406858365 kvar=13.7730511885216 daily="CURVA" status=variable vmaxpu=1.5 vminpu=0.92
New "Load.m2_trf_5286863a" bus1="82064825286863.1.2.3.4" phases=3 conn=Wye model=3 kv=0.380 kw=23.5768754088524 kvar=10.9466085628161 daily="CURVA" status=variable vmaxpu=1.5 vminpu=0.92
New "Load.m2_trf_5286864a" bus1="82064425286864.1.2.3.4" phases=3 conn=Wye model=3 kv=0.380 kw=23.9470347537626 kvar=11.1073681934778 daily="CURVA" status=variable vmaxpu=1.5 vminpu=0.92
New "Load.m2_trf_5286865a" bus1="82065005286865.1.2.3.4" phases=3 conn=Wye model=3 kv=0.380 kw=23.4836203778492 kvar=10.8617893412813 daily="CURVA" status=variable vmaxpu=1.5 vminpu=0.92
New "Load.m2_trf_5286866a" bus1="82063385286866.1.2.3.4" phases=3 conn=Wye model=3 kv=0.380 kw=30.0941864320986 kvar=13.9183010752813 daily="CURVA" status=variable vmaxpu=1.5 vminpu=0.92
New "Load.m2_trf_5286867a" bus1="82044385286867.1.2.3.4" phases=3 conn=Wye model=3 kv=0.380 kw=28.3748455691457 kvar=13.021605265208 daily="CURVA" status=variable vmaxpu=1.5 vminpu=0.92
New "Load.m2_trf_5286871a" bus1="82055725286871.1.2.3.4" phases=3 conn=Wye model=3 kv=0.380 kw=20.2163968072582 kvar=9.32711870832511 daily="CURVA" status=variable vmaxpu=1.5 vminpu=0.92
New "Load.m2_trf_5286872a" bus1="82054825286872.1.2.3.4" phases=3 conn=Wye model=3 kv=0.380 kw=19.0947979160548 kvar=8.68229619968787 daily="CURVA" status=variable vmaxpu=1.5 vminpu=0.92
New "Load.m2_trf_5286890a" bus1="82056915286890.1.2.3.4" phases=3 conn=Wye model=3 kv=0.380 kw=26.6612148173334 kvar=12.365539425368 daily="CURVA" status=variable vmaxpu=1.5 vminpu=0.92
New "Load.m2_trf_5286891a" bus1="82056385286891.1.2.3.4" phases=3 conn=Wye model=3 kv=0.380 kw=26.4818282187894 kvar=12.3154332729611 daily="CURVA" status=variable vmaxpu=1.5 vminpu=0.92
New "Load.m2_trf_5286914a" bus1="82053635286914.1.2.3.4" phases=3 conn=Wye model=3 kv=0.380 kw=29.505605655156 kvar=13.6407017943999 daily="CURVA" status=variable vmaxpu=1.5 vminpu=0.92
New "Load.m2_trf_5286915a" bus1="82054535286915.1.2.3.4" phases=3 conn=Wye model=3 kv=0.380 kw=24.5362436080537 kvar=11.2801916696158 daily="CURVA" status=variable vmaxpu=1.5 vminpu=0.92
New "Load.m2_trf_5286916a" bus1="82054235286916.1.2.3.4" phases=3 conn=Wye model=3 kv=0.380 kw=31.7721840370998 kvar=14.613291481582 daily="CURVA" status=variable vmaxpu=1.5 vminpu=0.92
New "Load.m2_trf_5286917a" bus1="82054305286917.1.2.3.4" phases=3 conn=Wye model=3 kv=0.380 kw=47.2674769006807 kvar=21.8660099542244 daily="CURVA" status=variable vmaxpu=1.5 vminpu=0.92
New "Load.m2_trf_5286918a" bus1="82053975286918.1.2.3.4" phases=3 conn=Wye model=3 kv=0.380 kw=40.4335613181522 kvar=18.736685726762 daily="CURVA" status=variable vmaxpu=1.5 vminpu=0.92
New "Load.m2_trf_5286919a" bus1="82060535286919.1.2.3.4" phases=3 conn=Wye model=3 kv=0.380 kw=21.659498091589 kvar=10.0335137048975 daily="CURVA" status=variable vmaxpu=1.5 vminpu=0.92
New "Load.m2_trf_5286930a" bus1="82049375286930.1.2.3.4" phases=3 conn=Wye model=3 kv=0.380 kw=24.135171073305 kvar=11.1526377416107 daily="CURVA" status=variable vmaxpu=1.5 vminpu=0.92
New "Load.m2_trf_5286931a" bus1="82049545286931.1.2.3.4" phases=3 conn=Wye model=3 kv=0.380 kw=47.7143760199622 kvar=21.8390914541429 daily="CURVA" status=variable vmaxpu=1.5 vminpu=0.92
New "Load.m2_trf_5286932a" bus1="82049765286932.1.2.3.4" phases=3 conn=Wye model=3 kv=0.380 kw=14.1914676815716 kvar=6.62276635075499 daily="CURVA" status=variable vmaxpu=1.5 vminpu=0.92
New "Load.m2_trf_5286933a" bus1="82049805286933.1.2.3.4" phases=3 conn=Wye model=3 kv=0.380 kw=32.1418263906083 kvar=14.8708187033546 daily="CURVA" status=variable vmaxpu=1.5 vminpu=0.92
New "Load.m2_trf_5286934a" bus1="82049885286934.1.2.3.4" phases=3 conn=Wye model=3 kv=0.380 kw=50.2924036550967 kvar=23.5185213164718 daily="CURVA" status=variable vmaxpu=1.5 vminpu=0.92
New "Load.m2_trf_5286935a" bus1="82050325286935.1.2.3.4" phases=3 conn=Wye model=3 kv=0.380 kw=9.79836707165655 kvar=4.51824256204547 daily="CURVA" status=variable vmaxpu=1.5 vminpu=0.92
New "Load.m2_trf_5286936a" bus1="82049975286936.1.2.3.4" phases=3 conn=Wye model=3 kv=0.380 kw=22.5849169808853 kvar=10.3089694553513 daily="CURVA" status=variable vmaxpu=1.5 vminpu=0.92
New "Load.m2_trf_5286937a" bus1="82050035286937.1.2.3.4" phases=3 conn=Wye model=3 kv=0.380 kw=8.1989295004689 kvar=3.7786466840681 daily="CURVA" status=variable vmaxpu=1.5 vminpu=0.92
New "Load.m2_trf_5286938a" bus1="82050465286938.1.2.3.4" phases=3 conn=Wye model=3 kv=0.380 kw=29.1881456033494 kvar=13.5337671873867 daily="CURVA" status=variable vmaxpu=1.5 vminpu=0.92
New "Load.m2_trf_5286939a" bus1="82039815286939.1.2.3.4" phases=3 conn=Wye model=3 kv=0.380 kw=16.5815310569947 kvar=7.64787309896679 daily="CURVA" status=variable vmaxpu=1.5 vminpu=0.92
New "Load.m2_trf_5286940a" bus1="82039945286940.1.2.3.4" phases=3 conn=Wye model=3 kv=0.380 kw=21.0333909629746 kvar=9.65156248824189 daily="CURVA" status=variable vmaxpu=1.5 vminpu=0.92
New "Load.m2_trf_5286941a" bus1="82040015286941.1.2.3.4" phases=3 conn=Wye model=3 kv=0.380 kw=26.3817176719557 kvar=12.1321790899274 daily="CURVA" status=variable vmaxpu=1.5 vminpu=0.92
New "Load.m2_trf_5286942a" bus1="82040165286942.1.2.3.4" phases=3 conn=Wye model=3 kv=0.380 kw=11.4764256540572 kvar=5.29922052138076 daily="CURVA" status=variable vmaxpu=1.5 vminpu=0.92
New "Load.m2_trf_5286943a" bus1="82040265286943.1.2.3.4" phases=3 conn=Wye model=3 kv=0.380 kw=9.90294015329969 kvar=4.55567466520726 daily="CURVA" status=variable vmaxpu=1.5 vminpu=0.92
New "Load.m2_trf_5286944a" bus1="82039725286944.1.2.3.4" phases=3 conn=Wye model=3 kv=0.380 kw=13.3886340114127 kvar=6.17979821707823 daily="CURVA" status=variable vmaxpu=1.5 vminpu=0.92
New "Load.m2_trf_5286945a" bus1="82040415286945.1.2.3.4" phases=3 conn=Wye model=3 kv=0.380 kw=26.9924294062816 kvar=12.4535927845767 daily="CURVA" status=variable vmaxpu=1.5 vminpu=0.92
New "Load.m2_trf_5286946a" bus1="82040575286946.1.2.3.4" phases=3 conn=Wye model=3 kv=0.380 kw=14.4618169624097 kvar=6.65644870513775 daily="CURVA" status=variable vmaxpu=1.5 vminpu=0.92
New "Load.m2_trf_5440862a" bus1="81479715440862.1.2.3.4" phases=3 conn=Wye model=3 kv=0.380 kw=24.9775356749488 kvar=11.5231147265037 daily="CURVA" status=variable vmaxpu=1.5 vminpu=0.92
New "Load.m2_trf_5469845a" bus1="82032105469845.1.2.3.4" phases=3 conn=Wye model=3 kv=0.380 kw=14.0411363760069 kvar=6.43132866900474 daily="CURVA" status=variable vmaxpu=1.5 vminpu=0.92
New "Load.m2_trf_5470133a" bus1="82034125470133.1.2.3.4" phases=3 conn=Wye model=3 kv=0.380 kw=11.511347831044 kvar=5.27957236773379 daily="CURVA" status=variable vmaxpu=1.5 vminpu=0.92
New "Load.m2_trf_5472282a" bus1="87774405472282.1.2.3.4" phases=3 conn=Wye model=3 kv=0.380 kw=8.17296685620955 kvar=3.85306946238757 daily="CURVA" status=variable vmaxpu=1.5 vminpu=0.92
New "Load.m2_trf_5479360a" bus1="81460535479360.1.2.3.4" phases=3 conn=Wye model=3 kv=0.380 kw=8.72261004094265 kvar=4.04583724325021 daily="CURVA" status=variable vmaxpu=1.5 vminpu=0.92
New "Load.m2_trf_5491509a" bus1="88287355491509.1.2.3.4" phases=3 conn=Wye model=3 kv=0.380 kw=8.86863611150458 kvar=4.10564003359217 daily="CURVA" status=variable vmaxpu=1.5 vminpu=0.92
New "Load.m2_trf_5499009a" bus1="82062715499009.1.2.3.4" phases=3 conn=Wye model=3 kv=0.380 kw=22.9191509938156 kvar=10.5469021240448 daily="CURVA" status=variable vmaxpu=1.5 vminpu=0.92
New "Load.m2_trf_5485359a" bus1="88109845485359.1.2.3.4" phases=3 conn=Wye model=3 kv=0.380 kw=8.68947717898727 kvar=4.02729288975623 daily="CURVA" status=variable vmaxpu=1.5 vminpu=0.92
New "Load.m2_trf_5502834a" bus1="82026575502834.1.2.3.4" phases=3 conn=Wye model=3 kv=0.380 kw=26.348919832849 kvar=12.097445691433 daily="CURVA" status=variable vmaxpu=1.5 vminpu=0.92
New "Load.m2_trf_5505307a" bus1="82034555505307.1.2.3.4" phases=3 conn=Wye model=3 kv=0.380 kw=35.2432252227411 kvar=16.1502837239133 daily="CURVA" status=variable vmaxpu=1.5 vminpu=0.92
New "Load.m2_trf_5535535a" bus1="89701935535535.1.2.3.4" phases=3 conn=Wye model=3 kv=0.380 kw=18.1163603417851 kvar=8.40832768705896 daily="CURVA" status=variable vmaxpu=1.5 vminpu=0.92
New "Load.m2_trf_5537656a" bus1="89813615537656.1.2.3.4" phases=3 conn=Wye model=3 kv=0.380 kw=11.2022423607757 kvar=5.1655520663268 daily="CURVA" status=variable vmaxpu=1.5 vminpu=0.92
New "Load.m2_trf_5547722a" bus1="90017985547722.1.2.3.4" phases=3 conn=Wye model=3 kv=0.380 kw=12.0099518369644 kvar=5.73624245603996 daily="CURVA" status=variable vmaxpu=1.5 vminpu=0.92
New "Load.m2_trf_5551754a" bus1="82061675551754.1.2.3.4" phases=3 conn=Wye model=3 kv=0.380 kw=16.1958533298397 kvar=7.480236483876 daily="CURVA" status=variable vmaxpu=1.5 vminpu=0.92
New "Load.m2_trf_5552038a" bus1="90190165552038.1.2.3.4" phases=3 conn=Wye model=3 kv=0.380 kw=24.0211497330826 kvar=11.2874623475781 daily="CURVA" status=variable vmaxpu=1.5 vminpu=0.92
New "Load.m2_trf_5552309a" bus1="82024125552309.1.2.3.4" phases=3 conn=Wye model=3 kv=0.380 kw=18.8925259951229 kvar=8.77690367606274 daily="CURVA" status=variable vmaxpu=1.5 vminpu=0.92
New "Load.m2_trf_5552553a" bus1="90214315552553.1.2.3.4" phases=3 conn=Wye model=3 kv=0.380 kw=5.66590708461932 kvar=2.63371657479061 daily="CURVA" status=variable vmaxpu=1.5 vminpu=0.92
New "Load.m2_trf_5552819a" bus1="82032765552819.1.2.3.4" phases=3 conn=Wye model=3 kv=0.380 kw=51.9432604907252 kvar=23.6841798396167 daily="CURVA" status=variable vmaxpu=1.5 vminpu=0.92
New "Load.m2_trf_5569878a" bus1="82055955569878.1.2.3.4" phases=3 conn=Wye model=3 kv=0.380 kw=24.6330469711789 kvar=11.2777230958522 daily="CURVA" status=variable vmaxpu=1.5 vminpu=0.92
New "Load.m2_trf_5555964a" bus1="90305705555964.1.2.3.4" phases=3 conn=Wye model=3 kv=0.380 kw=8.48188728435926 kvar=4.07964864050648 daily="CURVA" status=variable vmaxpu=1.5 vminpu=0.92
New "Load.m2_trf_5557353a" bus1="82044325557353.1.2.3.4" phases=3 conn=Wye model=3 kv=0.380 kw=26.8726149520942 kvar=12.4642649821488 daily="CURVA" status=variable vmaxpu=1.5 vminpu=0.92
New "Load.m2_trf_5558213a" bus1="90349975558213.1.2.3.4" phases=3 conn=Wye model=3 kv=0.380 kw=18.2290256590952 kvar=8.43204781734384 daily="CURVA" status=variable vmaxpu=1.5 vminpu=0.92
New "Load.m2_trf_5560489a" bus1="90409505560489.1.2.3.4" phases=3 conn=Wye model=3 kv=0.380 kw=20.8314221710007 kvar=9.66060801676261 daily="CURVA" status=variable vmaxpu=1.5 vminpu=0.92
New "Load.m2_trf_5574596a" bus1="82031945574596.1.2.3.4" phases=3 conn=Wye model=3 kv=0.380 kw=22.0024655773407 kvar=10.1298795780137 daily="CURVA" status=variable vmaxpu=1.5 vminpu=0.92
New "Load.m2_trf_5577671a" bus1="90938795577671.1.2.3.4" phases=3 conn=Wye model=3 kv=0.380 kw=18.0223140622671 kvar=8.29973131848846 daily="CURVA" status=variable vmaxpu=1.5 vminpu=0.92
New "Load.m2_trf_5286947a" bus1="82040855286947.1.2.3.4" phases=3 conn=Wye model=3 kv=0.380 kw=11.2234825153993 kvar=5.17120442528782 daily="CURVA" status=variable vmaxpu=1.5 vminpu=0.92
New "Load.m2_trf_5286958a" bus1="82031405286958.1.2.3.4" phases=3 conn=Wye model=3 kv=0.380 kw=33.1880113828576 kvar=15.3227640105302 daily="CURVA" status=variable vmaxpu=1.5 vminpu=0.92
...